<?xml version="1.0" encoding="ISO-8859-1"?>
<febio_spec version="4.0">
	<Module type="solid">
		<units>SI</units>
	</Module>
	<Control>
		<analysis>STATIC</analysis>
		<time_steps>10</time_steps>
		<step_size>0.1</step_size>
		<plot_zero_state>0</plot_zero_state>
		<plot_range>0,-1</plot_range>
		<plot_level>PLOT_MAJOR_ITRS</plot_level>
		<output_level>OUTPUT_MAJOR_ITRS</output_level>
		<plot_stride>1</plot_stride>
		<adaptor_re_solve>1</adaptor_re_solve>
		<time_stepper type="default">
			<max_retries>5</max_retries>
			<opt_iter>11</opt_iter>
			<dtmin>0</dtmin>
			<dtmax>0.1</dtmax>
			<aggressiveness>0</aggressiveness>
			<cutback>0.5</cutback>
			<dtforce>0</dtforce>
		</time_stepper>
		<solver type="solid">
			<symmetric_stiffness>symmetric</symmetric_stiffness>
			<equation_scheme>staggered</equation_scheme>
			<equation_order>default</equation_order>
			<optimize_bw>0</optimize_bw>
			<lstol>0.9</lstol>
			<lsmin>0.01</lsmin>
			<lsiter>5</lsiter>
			<max_refs>15</max_refs>
			<check_zero_diagonal>0</check_zero_diagonal>
			<zero_diagonal_tol>0</zero_diagonal_tol>
			<force_partition>0</force_partition>
			<reform_each_time_step>1</reform_each_time_step>
			<reform_augment>0</reform_augment>
			<diverge_reform>1</diverge_reform>
			<min_residual>1e-20</min_residual>
			<max_residual>0</max_residual>
			<dtol>0.001</dtol>
			<etol>0.01</etol>
			<rtol>0</rtol>
			<rhoi>-2</rhoi>
			<alpha>1</alpha>
			<beta>0.25</beta>
			<gamma>0.5</gamma>
			<logSolve>0</logSolve>
			<arc_length>0</arc_length>
			<arc_length_scale>0</arc_length_scale>
			<qn_method type="BFGS">
				<max_ups>10</max_ups>
				<max_buffer_size>0</max_buffer_size>
				<cycle_buffer>1</cycle_buffer>
				<cmax>100000</cmax>
			</qn_method>
		</solver>
	</Control>
	<Globals>
		<Constants>
			<T>0</T>
			<P>0</P>
			<R>8.31446</R>
			<Fc>96485.3</Fc>
		</Constants>
	</Globals>
	<Material>
		<material id="1" name="Material1" type="rigid body">
			<density>1</density>
			<E>1</E>
			<v>0</v>
			<center_of_mass>0.06,0,0.01</center_of_mass>
		</material>
		<material id="2" name="Material2" type="mymodel">
			<density>1</density>
			<E>1.316178e-317</E>
			<v>1.316178e-317</v>
		</material>
	</Material>
	<Mesh>
		<Nodes name="Object2">
			<node id="1">-0.05,-0.01,0</node>
			<node id="2">0.05,-0.01,0</node>
			<node id="3">0.05,0.01,0</node>
			<node id="4">-0.05,0.01,0</node>
			<node id="5">-0.05,-0.01,0.02</node>
			<node id="6">0.05,-0.01,0.02</node>
			<node id="7">0.05,0.01,0.02</node>
			<node id="8">-0.05,0.01,0.02</node>
			<node id="9">-0.046,-0.01,0</node>
			<node id="10">-0.042,-0.01,0</node>
			<node id="11">-0.038,-0.01,0</node>
			<node id="12">-0.034,-0.01,0</node>
			<node id="13">-0.03,-0.01,0</node>
			<node id="14">-0.026,-0.01,0</node>
			<node id="15">-0.022,-0.01,0</node>
			<node id="16">-0.018,-0.01,0</node>
			<node id="17">-0.014,-0.01,0</node>
			<node id="18">-0.01,-0.01,0</node>
			<node id="19">-0.006,-0.01,0</node>
			<node id="20">-0.002,-0.01,0</node>
<!-- ... 924 like lines cut -->
		</Nodes>
		<Elements type="hex8" name="Part1">
			<elem id="1">1,9,433,132,64,137,553,348</elem>
			<elem id="2">9,10,434,433,137,138,554,553</elem>
			<elem id="3">10,11,435,434,138,139,555,554</elem>
			<elem id="4">11,12,436,435,139,140,556,555</elem>
			<elem id="5">12,13,437,436,140,141,557,556</elem>
			<elem id="6">13,14,438,437,141,142,558,557</elem>
			<elem id="7">14,15,439,438,142,143,559,558</elem>
			<elem id="8">15,16,440,439,143,144,560,559</elem>
			<elem id="9">16,17,441,440,144,145,561,560</elem>
			<elem id="10">17,18,442,441,145,146,562,561</elem>
			<elem id="11">18,19,443,442,146,147,563,562</elem>
			<elem id="12">19,20,444,443,147,148,564,563</elem>
			<elem id="13">20,21,445,444,148,149,565,564</elem>
			<elem id="14">21,22,446,445,149,150,566,565</elem>
			<elem id="15">22,23,447,446,150,151,567,566</elem>
			<elem id="16">23,24,448,447,151,152,568,567</elem>
			<elem id="17">24,25,449,448,152,153,569,568</elem>
			<elem id="18">25,26,450,449,153,154,570,569</elem>
			<elem id="19">26,27,451,450,154,155,571,570</elem>
			<elem id="20">27,28,452,451,155,156,572,571</elem>
<!-- ... 605 like lines cut -->
		</Elements>
		<Elements type="hex8" name="Part2">
			<elem id="626">937,938,939,940,941,942,943,944</elem>
		</Elements>
		<Surface name="attach_surface">
			<quad4 id="1">2,65,233,33</quad4>
			<quad4 id="2">65,66,234,233</quad4>
			<quad4 id="3">66,67,235,234</quad4>
			<quad4 id="4">67,68,236,235</quad4>
			<quad4 id="5">68,3,69,236</quad4>
			<quad4 id="6">33,233,237,34</quad4>
			<quad4 id="7">233,234,238,237</quad4>
			<quad4 id="8">234,235,239,238</quad4>
			<quad4 id="9">235,236,240,239</quad4>
			<quad4 id="10">236,69,70,240</quad4>
			<quad4 id="11">34,237,241,35</quad4>
			<quad4 id="12">237,238,242,241</quad4>
			<quad4 id="13">238,239,243,242</quad4>
			<quad4 id="14">239,240,244,243</quad4>
			<quad4 id="15">240,70,71,244</quad4>
			<quad4 id="16">35,241,245,36</quad4>
			<quad4 id="17">241,242,246,245</quad4>
			<quad4 id="18">242,243,247,246</quad4>
			<quad4 id="19">243,244,248,247</quad4>
			<quad4 id="20">244,71,72,248</quad4>
<!-- ... 5 like lines cut -->
		</Surface>
		<Surface name="ZeroDisplacement1">
			<quad4 id="1">4,129,345,101</quad4>
			<quad4 id="2">129,130,346,345</quad4>
			<quad4 id="3">130,131,347,346</quad4>
			<quad4 id="4">131,132,348,347</quad4>
			<quad4 id="5">132,1,64,348</quad4>
			<quad4 id="6">101,345,349,102</quad4>
			<quad4 id="7">345,346,350,349</quad4>
			<quad4 id="8">346,347,351,350</quad4>
			<quad4 id="9">347,348,352,351</quad4>
			<quad4 id="10">348,64,63,352</quad4>
			<quad4 id="11">102,349,353,103</quad4>
			<quad4 id="12">349,350,354,353</quad4>
			<quad4 id="13">350,351,355,354</quad4>
			<quad4 id="14">351,352,356,355</quad4>
			<quad4 id="15">352,63,62,356</quad4>
			<quad4 id="16">103,353,357,104</quad4>
			<quad4 id="17">353,354,358,357</quad4>
			<quad4 id="18">354,355,359,358</quad4>
			<quad4 id="19">355,356,360,359</quad4>
			<quad4 id="20">356,62,61,360</quad4>
<!-- ... 5 like lines cut -->
		</Surface>
	</Mesh>
	<MeshDomains>
		<SolidDomain name="Part1" mat="Material2"/>
		<SolidDomain name="Part2" mat="Material1"/>
	</MeshDomains>
	<Boundary>
		<bc name="ZeroDisplacement1" node_set="@surface:ZeroDisplacement1" type="zero displacement">
			<x_dof>1</x_dof>
			<y_dof>1</y_dof>
			<z_dof>1</z_dof>
		</bc>
		<bc name="Rigid2" node_set="@surface:attach_surface" type="rigid">
			<rb>Material1</rb>
		</bc>
	</Boundary>
	<Rigid>
		<rigid_bc name="RigidConstraint1" type="rigid_fixed">
			<rb>Material1</rb>
			<Rx_dof>1</Rx_dof>
			<Ry_dof>1</Ry_dof>
			<Rz_dof>1</Rz_dof>
			<Ru_dof>0</Ru_dof>
			<Rv_dof>1</Rv_dof>
			<Rw_dof>1</Rw_dof>
		</rigid_bc>
		<rigid_bc name="RigidConstraint2" type="rigid_rotation">
			<rb>Material1</rb>
			<dof>Ru</dof>
			<value lc="1">3.14</value>
			<relative>0</relative>
		</rigid_bc>
	</Rigid>
	<LoadData>
		<load_controller id="1" name="LC1" type="loadcurve">
			<interpolate>LINEAR</interpolate>
			<extend>CONSTANT</extend>
			<points>
				<pt>0,0</pt>
				<pt>1,1</pt>
			</points>
		</load_controller>
	</LoadData>
	<Output>
		<plotfile type="febio">
			<var type="displacement"/>
			<var type="stress"/>
			<var type="relative volume"/>
			<var type="PK2 stress"/>
			<var type="PK1 stress"/>
			<var type="deformation gradient"/>
		</plotfile>
	</Output>
</febio_spec>
