<?xml version="1.0" encoding="ISO-8859-1"?>
<febio_spec version="4.0">
	<Module type="solid">
		<units>SI</units>
	</Module>
	<Control>
		<analysis>STATIC</analysis>
		<time_steps>10</time_steps>
		<step_size>0.1</step_size>
		<plot_zero_state>0</plot_zero_state>
		<plot_range>0,-1</plot_range>
		<plot_level>PLOT_MAJOR_ITRS</plot_level>
		<output_level>OUTPUT_MAJOR_ITRS</output_level>
		<plot_stride>1</plot_stride>
		<adaptor_re_solve>1</adaptor_re_solve>
		<time_stepper type="default">
			<max_retries>5</max_retries>
			<opt_iter>11</opt_iter>
			<dtmin>0</dtmin>
			<dtmax>0.1</dtmax>
			<aggressiveness>0</aggressiveness>
			<cutback>0.5</cutback>
			<dtforce>0</dtforce>
		</time_stepper>
		<solver type="solid">
			<symmetric_stiffness>symmetric</symmetric_stiffness>
			<equation_scheme>staggered</equation_scheme>
			<equation_order>default</equation_order>
			<optimize_bw>0</optimize_bw>
			<lstol>0.9</lstol>
			<lsmin>0.01</lsmin>
			<lsiter>5</lsiter>
			<max_refs>15</max_refs>
			<check_zero_diagonal>0</check_zero_diagonal>
			<zero_diagonal_tol>0</zero_diagonal_tol>
			<force_partition>0</force_partition>
			<reform_each_time_step>1</reform_each_time_step>
			<reform_augment>0</reform_augment>
			<diverge_reform>1</diverge_reform>
			<min_residual>1e-20</min_residual>
			<max_residual>0</max_residual>
			<dtol>0.001</dtol>
			<etol>0.01</etol>
			<rtol>0</rtol>
			<rhoi>-2</rhoi>
			<alpha>1</alpha>
			<beta>0.25</beta>
			<gamma>0.5</gamma>
			<logSolve>0</logSolve>
			<arc_length>0</arc_length>
			<arc_length_scale>0</arc_length_scale>
			<qn_method type="BFGS">
				<max_ups>10</max_ups>
				<max_buffer_size>0</max_buffer_size>
				<cycle_buffer>1</cycle_buffer>
				<cmax>100000</cmax>
			</qn_method>
		</solver>
	</Control>
	<Globals>
		<Constants>
			<T>0</T>
			<P>0</P>
			<R>8.31446</R>
			<Fc>96485.3</Fc>
		</Constants>
	</Globals>
	<Material>
		<material id="1" name="Material1" type="solid mixture">
			<solid type="neo-Hookean">
				<E>1000.0</E>
				<v>0.45</v>
			</solid>
			<solid type="fiber-exp-pow">
				<alpha>20</alpha>
				<beta>3</beta>
				<ksi>5</ksi>
				<lam0>1</lam0>
				<fiber type="vector">
				    <vector>1,1,0</vector>
				</fiber>
			</solid>
		</material>
    </Material>
	<Mesh>
		<Nodes name="Object1">
			<node id="1">-0.05,-0.01,0</node>
			<node id="2">0.05,-0.01,0</node>
			<node id="3">0.05,0.01,0</node>
			<node id="4">-0.05,0.01,0</node>
			<node id="5">-0.05,-0.01,0.1</node>
			<node id="6">0.05,-0.01,0.1</node>
			<node id="7">0.05,0.01,0.1</node>
			<node id="8">-0.05,0.01,0.1</node>
			<node id="9">-0.0452380952,-0.01,0</node>
			<node id="10">-0.0404761905,-0.01,0</node>
			<node id="11">-0.0357142857,-0.01,0</node>
			<node id="12">-0.030952381,-0.01,0</node>
			<node id="13">-0.0261904762,-0.01,0</node>
			<node id="14">-0.0214285714,-0.01,0</node>
			<node id="15">-0.0166666667,-0.01,0</node>
			<node id="16">-0.0119047619,-0.01,0</node>
			<node id="17">-0.00714285714,-0.01,0</node>
			<node id="18">-0.00238095238,-0.01,0</node>
			<node id="19">0.00238095238,-0.01,0</node>
			<node id="20">0.00714285714,-0.01,0</node>
<!-- ... 2884 like lines cut -->
		</Nodes>
		<Elements type="hex8" name="Part1">
			<elem id="1">1,9,1205,180,88,185,1305,1068</elem>
			<elem id="2">9,10,1206,1205,185,186,1306,1305</elem>
			<elem id="3">10,11,1207,1206,186,187,1307,1306</elem>
			<elem id="4">11,12,1208,1207,187,188,1308,1307</elem>
			<elem id="5">12,13,1209,1208,188,189,1309,1308</elem>
			<elem id="6">13,14,1210,1209,189,190,1310,1309</elem>
			<elem id="7">14,15,1211,1210,190,191,1311,1310</elem>
			<elem id="8">15,16,1212,1211,191,192,1312,1311</elem>
			<elem id="9">16,17,1213,1212,192,193,1313,1312</elem>
			<elem id="10">17,18,1214,1213,193,194,1314,1313</elem>
			<elem id="11">18,19,1215,1214,194,195,1315,1314</elem>
			<elem id="12">19,20,1216,1215,195,196,1316,1315</elem>
			<elem id="13">20,21,1217,1216,196,197,1317,1316</elem>
			<elem id="14">21,22,1218,1217,197,198,1318,1317</elem>
			<elem id="15">22,23,1219,1218,198,199,1319,1318</elem>
			<elem id="16">23,24,1220,1219,199,200,1320,1319</elem>
			<elem id="17">24,25,1221,1220,200,201,1321,1320</elem>
			<elem id="18">25,26,1222,1221,201,202,1322,1321</elem>
			<elem id="19">26,27,1223,1222,202,203,1323,1322</elem>
			<elem id="20">27,28,1224,1223,203,204,1324,1323</elem>
<!-- ... 2185 like lines cut -->
		</Elements>
		<Surface name="PrescribedDisplacement1">
			<quad4 id="1">2,89,585,29</quad4>
			<quad4 id="2">89,90,586,585</quad4>
			<quad4 id="3">90,91,587,586</quad4>
			<quad4 id="4">91,92,588,587</quad4>
			<quad4 id="5">92,3,93,588</quad4>
			<quad4 id="6">29,585,589,30</quad4>
			<quad4 id="7">585,586,590,589</quad4>
			<quad4 id="8">586,587,591,590</quad4>
			<quad4 id="9">587,588,592,591</quad4>
			<quad4 id="10">588,93,94,592</quad4>
			<quad4 id="11">30,589,593,31</quad4>
			<quad4 id="12">589,590,594,593</quad4>
			<quad4 id="13">590,591,595,594</quad4>
			<quad4 id="14">591,592,596,595</quad4>
			<quad4 id="15">592,94,95,596</quad4>
			<quad4 id="16">31,593,597,32</quad4>
			<quad4 id="17">593,594,598,597</quad4>
			<quad4 id="18">594,595,599,598</quad4>
			<quad4 id="19">595,596,600,599</quad4>
			<quad4 id="20">596,95,96,600</quad4>
<!-- ... 85 like lines cut -->
		</Surface>
		<Surface name="PrescribedDisplacement2">
			<quad4 id="1">4,177,1065,137</quad4>
			<quad4 id="2">177,178,1066,1065</quad4>
			<quad4 id="3">178,179,1067,1066</quad4>
			<quad4 id="4">179,180,1068,1067</quad4>
			<quad4 id="5">180,1,88,1068</quad4>
			<quad4 id="6">137,1065,1069,138</quad4>
			<quad4 id="7">1065,1066,1070,1069</quad4>
			<quad4 id="8">1066,1067,1071,1070</quad4>
			<quad4 id="9">1067,1068,1072,1071</quad4>
			<quad4 id="10">1068,88,87,1072</quad4>
			<quad4 id="11">138,1069,1073,139</quad4>
			<quad4 id="12">1069,1070,1074,1073</quad4>
			<quad4 id="13">1070,1071,1075,1074</quad4>
			<quad4 id="14">1071,1072,1076,1075</quad4>
			<quad4 id="15">1072,87,86,1076</quad4>
			<quad4 id="16">139,1073,1077,140</quad4>
			<quad4 id="17">1073,1074,1078,1077</quad4>
			<quad4 id="18">1074,1075,1079,1078</quad4>
			<quad4 id="19">1075,1076,1080,1079</quad4>
			<quad4 id="20">1076,86,85,1080</quad4>
<!-- ... 85 like lines cut -->
		</Surface>
		<Surface name="PrescribedDisplacement3">
			<quad4 id="1">5,68,1225,181</quad4>
			<quad4 id="2">68,67,1226,1225</quad4>
			<quad4 id="3">67,66,1227,1226</quad4>
			<quad4 id="4">66,65,1228,1227</quad4>
			<quad4 id="5">65,64,1229,1228</quad4>
			<quad4 id="6">64,63,1230,1229</quad4>
			<quad4 id="7">63,62,1231,1230</quad4>
			<quad4 id="8">62,61,1232,1231</quad4>
			<quad4 id="9">61,60,1233,1232</quad4>
			<quad4 id="10">60,59,1234,1233</quad4>
			<quad4 id="11">59,58,1235,1234</quad4>
			<quad4 id="12">58,57,1236,1235</quad4>
			<quad4 id="13">57,56,1237,1236</quad4>
			<quad4 id="14">56,55,1238,1237</quad4>
			<quad4 id="15">55,54,1239,1238</quad4>
			<quad4 id="16">54,53,1240,1239</quad4>
			<quad4 id="17">53,52,1241,1240</quad4>
			<quad4 id="18">52,51,1242,1241</quad4>
			<quad4 id="19">51,50,1243,1242</quad4>
			<quad4 id="20">50,49,1244,1243</quad4>
<!-- ... 85 like lines cut -->
		</Surface>
		<Surface name="PrescribedDisplacement4">
			<quad4 id="1">4,136,1145,177</quad4>
			<quad4 id="2">136,135,1146,1145</quad4>
			<quad4 id="3">135,134,1147,1146</quad4>
			<quad4 id="4">134,133,1148,1147</quad4>
			<quad4 id="5">133,132,1149,1148</quad4>
			<quad4 id="6">132,131,1150,1149</quad4>
			<quad4 id="7">131,130,1151,1150</quad4>
			<quad4 id="8">130,129,1152,1151</quad4>
			<quad4 id="9">129,128,1153,1152</quad4>
			<quad4 id="10">128,127,1154,1153</quad4>
			<quad4 id="11">127,126,1155,1154</quad4>
			<quad4 id="12">126,125,1156,1155</quad4>
			<quad4 id="13">125,124,1157,1156</quad4>
			<quad4 id="14">124,123,1158,1157</quad4>
			<quad4 id="15">123,122,1159,1158</quad4>
			<quad4 id="16">122,121,1160,1159</quad4>
			<quad4 id="17">121,120,1161,1160</quad4>
			<quad4 id="18">120,119,1162,1161</quad4>
			<quad4 id="19">119,118,1163,1162</quad4>
			<quad4 id="20">118,117,1164,1163</quad4>
<!-- ... 85 like lines cut -->
		</Surface>
	</Mesh>
	<MeshDomains>
		<SolidDomain name="Part1" mat="Material1"/>
	</MeshDomains>
	<Boundary>
		<bc name="PrescribedDisplacement1" node_set="@surface:PrescribedDisplacement1" type="prescribed displacement">
			<dof>x</dof>
			<value lc="1">0.025</value>
			<relative>0</relative>
		</bc>
		<bc name="PrescribedDisplacement2" node_set="@surface:PrescribedDisplacement2" type="prescribed displacement">
			<dof>x</dof>
			<value lc="2">-0.025</value>
			<relative>0</relative>
		</bc>
		<bc name="PrescribedDisplacement3" node_set="@surface:PrescribedDisplacement3" type="prescribed displacement">
			<dof>z</dof>
			<value lc="3">0.025</value>
			<relative>0</relative>
		</bc>
		<bc name="PrescribedDisplacement4" node_set="@surface:PrescribedDisplacement4" type="prescribed displacement">
			<dof>z</dof>
			<value lc="4">-0.025</value>
			<relative>0</relative>
		</bc>
	</Boundary>
	<LoadData>
		<load_controller id="1" name="LC1" type="loadcurve">
			<interpolate>LINEAR</interpolate>
			<extend>CONSTANT</extend>
			<points>
				<pt>0,0</pt>
				<pt>1,1</pt>
			</points>
		</load_controller>
		<load_controller id="2" name="LC2" type="loadcurve">
			<interpolate>LINEAR</interpolate>
			<extend>CONSTANT</extend>
			<points>
				<pt>0,0</pt>
				<pt>1,1</pt>
			</points>
		</load_controller>
		<load_controller id="3" name="LC3" type="loadcurve">
			<interpolate>LINEAR</interpolate>
			<extend>CONSTANT</extend>
			<points>
				<pt>0,0</pt>
				<pt>1,1</pt>
			</points>
		</load_controller>
		<load_controller id="4" name="LC4" type="loadcurve">
			<interpolate>LINEAR</interpolate>
			<extend>CONSTANT</extend>
			<points>
				<pt>0,0</pt>
				<pt>1,1</pt>
			</points>
		</load_controller>
	</LoadData>
	<Output>
		<plotfile type="febio">
			<var type="displacement"/>
			<var type="stress"/>
			<var type="relative volume"/>
		</plotfile>
		<logfile>
			<element_data data="Fxx;Fxy;Fxz;Fyx;Fyy;Fyz;Fzx;Fzy;Fzz" file="F">1344,1198,2153,30</element_data>
			<element_data data="sx;sy;sz;sxy;syz;sxz" file="sigma">1344,1198,2153,30</element_data>
		</logfile>
	</Output>
</febio_spec>
