<?xml version="1.0" encoding="ISO-8859-1"?>
<febio_spec version="4.0">
	<Module type="solid">
		<units>SI</units>
	</Module>
	<Control>
		<analysis>STATIC</analysis>
		<time_steps>10</time_steps>
		<step_size>0.1</step_size>
		<plot_zero_state>0</plot_zero_state>
		<plot_range>0,-1</plot_range>
		<plot_level>PLOT_MAJOR_ITRS</plot_level>
		<output_level>OUTPUT_MAJOR_ITRS</output_level>
		<plot_stride>1</plot_stride>
		<adaptor_re_solve>1</adaptor_re_solve>
		<time_stepper type="default">
			<max_retries>5</max_retries>
			<opt_iter>11</opt_iter>
			<dtmin>0</dtmin>
			<dtmax>0.1</dtmax>
			<aggressiveness>0</aggressiveness>
			<cutback>0.5</cutback>
			<dtforce>0</dtforce>
		</time_stepper>
		<solver type="solid">
			<symmetric_stiffness>symmetric</symmetric_stiffness>
			<equation_scheme>staggered</equation_scheme>
			<equation_order>default</equation_order>
			<optimize_bw>0</optimize_bw>
			<lstol>0.9</lstol>
			<lsmin>0.01</lsmin>
			<lsiter>5</lsiter>
			<max_refs>15</max_refs>
			<check_zero_diagonal>0</check_zero_diagonal>
			<zero_diagonal_tol>0</zero_diagonal_tol>
			<force_partition>0</force_partition>
			<reform_each_time_step>1</reform_each_time_step>
			<reform_augment>0</reform_augment>
			<diverge_reform>1</diverge_reform>
			<min_residual>1e-20</min_residual>
			<max_residual>0</max_residual>
			<dtol>0.001</dtol>
			<etol>0.01</etol>
			<rtol>0</rtol>
			<rhoi>-2</rhoi>
			<alpha>1</alpha>
			<beta>0.25</beta>
			<gamma>0.5</gamma>
			<logSolve>0</logSolve>
			<arc_length>0</arc_length>
			<arc_length_scale>0</arc_length_scale>
			<qn_method type="BFGS">
				<max_ups>10</max_ups>
				<max_buffer_size>0</max_buffer_size>
				<cycle_buffer>1</cycle_buffer>
				<cmax>100000</cmax>
			</qn_method>
		</solver>
	</Control>
	<Globals>
		<Constants>
			<T>0</T>
			<P>0</P>
			<R>8.31446</R>
			<Fc>96485.3</Fc>
		</Constants>
	</Globals>
	<Material>
		<material id="1" name="Material1" type="solid mixture">
			<solid type="neo-Hookean">
				<E>1000.0</E>
				<v>0.45</v>
			</solid>
			<solid type="fiber-exp-pow">
				<alpha>20</alpha>
				<beta>3</beta>
				<ksi>5</ksi>
				<lam0>1</lam0>
				<fiber type="vector">
				    <vector>1,1,0</vector>
				</fiber>
			</solid>
		</material>
    </Material>
	<Mesh>
		<Nodes name="Object1">
			<node id="1">-0.01,-0.01,0</node>
			<node id="2">0.01,-0.01,0</node>
			<node id="3">0.01,0.01,0</node>
			<node id="4">-0.01,0.01,0</node>
			<node id="5">-0.01,-0.01,0.1</node>
			<node id="6">0.01,-0.01,0.1</node>
			<node id="7">0.01,0.01,0.1</node>
			<node id="8">-0.01,0.01,0.1</node>
			<node id="9">-0.00333333333,-0.01,0</node>
			<node id="10">0.00333333333,-0.01,0</node>
			<node id="11">0.01,-0.01,0.01</node>
			<node id="12">0.01,-0.01,0.02</node>
			<node id="13">0.01,-0.01,0.03</node>
			<node id="14">0.01,-0.01,0.04</node>
			<node id="15">0.01,-0.01,0.05</node>
			<node id="16">0.01,-0.01,0.06</node>
			<node id="17">0.01,-0.01,0.07</node>
			<node id="18">0.01,-0.01,0.08</node>
			<node id="19">0.01,-0.01,0.09</node>
			<node id="20">0.00333333333,-0.01,0.1</node>
<!-- ... 156 like lines cut -->
		</Nodes>
		<Elements type="hex8" name="Part1">
			<elem id="1">1,9,135,58,30,61,141,116</elem>
			<elem id="2">9,10,136,135,61,62,142,141</elem>
			<elem id="3">10,2,31,136,62,11,79,142</elem>
			<elem id="4">58,135,133,57,116,141,143,115</elem>
			<elem id="5">135,136,134,133,141,142,144,143</elem>
			<elem id="6">136,31,32,134,142,79,80,144</elem>
			<elem id="7">57,133,45,4,115,143,98,46</elem>
			<elem id="8">133,134,44,45,143,144,97,98</elem>
			<elem id="9">134,32,3,44,144,80,33,97</elem>
			<elem id="10">30,61,141,116,29,63,145,118</elem>
			<elem id="11">61,62,142,141,63,64,146,145</elem>
			<elem id="12">62,11,79,142,64,12,81,146</elem>
			<elem id="13">116,141,143,115,118,145,147,117</elem>
			<elem id="14">141,142,144,143,145,146,148,147</elem>
			<elem id="15">142,79,80,144,146,81,82,148</elem>
			<elem id="16">115,143,98,46,117,147,100,47</elem>
			<elem id="17">143,144,97,98,147,148,99,100</elem>
			<elem id="18">144,80,33,97,148,82,34,99</elem>
			<elem id="19">29,63,145,118,28,65,149,120</elem>
			<elem id="20">63,64,146,145,65,66,150,149</elem>
<!-- ... 70 like lines cut -->
		</Elements>
		<Surface name="ZeroDisplacement1">
			<quad4 id="1">4,45,133,57</quad4>
			<quad4 id="2">45,44,134,133</quad4>
			<quad4 id="3">44,3,32,134</quad4>
			<quad4 id="4">57,133,135,58</quad4>
			<quad4 id="5">133,134,136,135</quad4>
			<quad4 id="6">134,32,31,136</quad4>
			<quad4 id="7">58,135,9,1</quad4>
			<quad4 id="8">135,136,10,9</quad4>
			<quad4 id="9">136,31,2,10</quad4>
		</Surface>
		<Surface name="PrescribedDisplacement2">
			<quad4 id="1">5,21,137,59</quad4>
			<quad4 id="2">21,20,138,137</quad4>
			<quad4 id="3">20,6,43,138</quad4>
			<quad4 id="4">59,137,139,60</quad4>
			<quad4 id="5">137,138,140,139</quad4>
			<quad4 id="6">138,43,42,140</quad4>
			<quad4 id="7">60,139,55,8</quad4>
			<quad4 id="8">139,140,56,55</quad4>
			<quad4 id="9">140,42,7,56</quad4>
		</Surface>
	</Mesh>
	<MeshDomains>
		<SolidDomain name="Part1" mat="Material1"/>
	</MeshDomains>
	<Boundary>
		<bc name="ZeroDisplacement1" node_set="@surface:ZeroDisplacement1" type="zero displacement">
			<x_dof>1</x_dof>
			<y_dof>1</y_dof>
			<z_dof>1</z_dof>
		</bc>
		<bc name="PrescribedDisplacement2" node_set="@surface:PrescribedDisplacement2" type="prescribed displacement">
			<dof>z</dof>
			<value lc="1">0.025</value>
			<relative>0</relative>
		</bc>
	</Boundary>
	<LoadData>
		<load_controller id="1" name="LC1" type="loadcurve">
			<interpolate>LINEAR</interpolate>
			<extend>CONSTANT</extend>
			<points>
				<pt>0,0</pt>
				<pt>1,1</pt>
			</points>
		</load_controller>
	</LoadData>
	<Output>
		<plotfile type="febio">
			<var type="displacement"/>
			<var type="stress"/>
			<var type="relative volume"/>
		</plotfile>
		<logfile>
			<element_data data="Fxx;Fxy;Fxz;Fyx;Fyy;Fyz;Fzx;Fzy;Fzz" file="F">86</element_data>
			<element_data data="sx;sy;sz;sxy;syz;sxz" file="sigma">86</element_data>
		</logfile>
	</Output>
</febio_spec>
