<?xml version="1.0" encoding="ISO-8859-1"?>
<febio_spec version="4.0">
	<Module type="solid">
		<units>SI</units>
	</Module>
	<Control>
		<analysis>STATIC</analysis>
		<time_steps>10</time_steps>
		<step_size>0.1</step_size>
		<plot_zero_state>0</plot_zero_state>
		<plot_range>0,-1</plot_range>
		<plot_level>PLOT_MAJOR_ITRS</plot_level>
		<output_level>OUTPUT_MAJOR_ITRS</output_level>
		<plot_stride>1</plot_stride>
		<adaptor_re_solve>1</adaptor_re_solve>
		<time_stepper type="default">
			<max_retries>5</max_retries>
			<opt_iter>11</opt_iter>
			<dtmin>0</dtmin>
			<dtmax>0.1</dtmax>
			<aggressiveness>0</aggressiveness>
			<cutback>0.5</cutback>
			<dtforce>0</dtforce>
		</time_stepper>
		<solver type="solid">
			<symmetric_stiffness>symmetric</symmetric_stiffness>
			<equation_scheme>staggered</equation_scheme>
			<equation_order>default</equation_order>
			<optimize_bw>0</optimize_bw>
			<lstol>0.9</lstol>
			<lsmin>0.01</lsmin>
			<lsiter>5</lsiter>
			<max_refs>15</max_refs>
			<check_zero_diagonal>0</check_zero_diagonal>
			<zero_diagonal_tol>0</zero_diagonal_tol>
			<force_partition>0</force_partition>
			<reform_each_time_step>1</reform_each_time_step>
			<reform_augment>0</reform_augment>
			<diverge_reform>1</diverge_reform>
			<min_residual>1e-20</min_residual>
			<max_residual>0</max_residual>
			<dtol>0.001</dtol>
			<etol>0.01</etol>
			<rtol>0</rtol>
			<rhoi>-2</rhoi>
			<alpha>1</alpha>
			<beta>0.25</beta>
			<gamma>0.5</gamma>
			<logSolve>0</logSolve>
			<arc_length>0</arc_length>
			<arc_length_scale>0</arc_length_scale>
			<qn_method type="BFGS">
				<max_ups>10</max_ups>
				<max_buffer_size>0</max_buffer_size>
				<cycle_buffer>1</cycle_buffer>
				<cmax>100000</cmax>
			</qn_method>
		</solver>
	</Control>
	<Globals>
		<Constants>
			<T>0</T>
			<P>0</P>
			<R>8.31446</R>
			<Fc>96485.3</Fc>
		</Constants>
	</Globals>
	<Material>
		<material id="1" name="Material1" type="solid mixture">
			<solid type="neo-Hookean">
				<E>1000.0</E>
				<v>0.45</v>
			</solid>
			<solid type="fiber-exp-pow">
				<alpha>20</alpha>
				<beta>3</beta>
				<ksi>5</ksi>
				<lam0>1</lam0>
				<fiber type="vector">
				    <vector>1,1,0</vector>
				</fiber>
			</solid>
		</material>
    </Material>
	<Mesh>
		<Nodes name="Object1">
			<node id="1">-0.05,-0.01,0</node>
			<node id="2">0.05,-0.01,0</node>
			<node id="3">0.05,0.01,0</node>
			<node id="4">-0.05,0.01,0</node>
			<node id="5">-0.05,-0.01,0.02</node>
			<node id="6">0.05,-0.01,0.02</node>
			<node id="7">0.05,0.01,0.02</node>
			<node id="8">-0.05,0.01,0.02</node>
			<node id="9">-0.0409090909,-0.01,0</node>
			<node id="10">-0.0318181818,-0.01,0</node>
			<node id="11">-0.0227272727,-0.01,0</node>
			<node id="12">-0.0136363636,-0.01,0</node>
			<node id="13">-0.00454545455,-0.01,0</node>
			<node id="14">0.00454545455,-0.01,0</node>
			<node id="15">0.0136363636,-0.01,0</node>
			<node id="16">0.0227272727,-0.01,0</node>
			<node id="17">0.0318181818,-0.01,0</node>
			<node id="18">0.0409090909,-0.01,0</node>
			<node id="19">0.05,-0.01,0.00666666667</node>
			<node id="20">0.05,-0.01,0.0133333333</node>
<!-- ... 172 like lines cut -->
		</Nodes>
		<Elements type="hex8" name="Part1">
			<elem id="1">1,9,123,62,32,65,153,110</elem>
			<elem id="2">9,10,124,123,65,66,154,153</elem>
			<elem id="3">10,11,125,124,66,67,155,154</elem>
			<elem id="4">11,12,126,125,67,68,156,155</elem>
			<elem id="5">12,13,127,126,68,69,157,156</elem>
			<elem id="6">13,14,128,127,69,70,158,157</elem>
			<elem id="7">14,15,129,128,70,71,159,158</elem>
			<elem id="8">15,16,130,129,71,72,160,159</elem>
			<elem id="9">16,17,131,130,72,73,161,160</elem>
			<elem id="10">17,18,132,131,73,74,162,161</elem>
			<elem id="11">18,2,33,132,74,19,85,162</elem>
			<elem id="12">62,123,113,61,110,153,163,109</elem>
			<elem id="13">123,124,114,113,153,154,164,163</elem>
			<elem id="14">124,125,115,114,154,155,165,164</elem>
			<elem id="15">125,126,116,115,155,156,166,165</elem>
			<elem id="16">126,127,117,116,156,157,167,166</elem>
			<elem id="17">127,128,118,117,157,158,168,167</elem>
			<elem id="18">128,129,119,118,158,159,169,168</elem>
			<elem id="19">129,130,120,119,159,160,170,169</elem>
			<elem id="20">130,131,121,120,160,161,171,170</elem>
<!-- ... 79 like lines cut -->
		</Elements>
		<Surface name="PrescribedDisplacement1">
			<quad4 id="1">2,33,85,19</quad4>
			<quad4 id="2">33,34,86,85</quad4>
			<quad4 id="3">34,3,35,86</quad4>
			<quad4 id="4">19,85,87,20</quad4>
			<quad4 id="5">85,86,88,87</quad4>
			<quad4 id="6">86,35,36,88</quad4>
			<quad4 id="7">20,87,38,6</quad4>
			<quad4 id="8">87,88,37,38</quad4>
			<quad4 id="9">88,36,7,37</quad4>
		</Surface>
		<Surface name="ZeroDisplacement2">
			<quad4 id="1">4,61,109,49</quad4>
			<quad4 id="2">61,62,110,109</quad4>
			<quad4 id="3">62,1,32,110</quad4>
			<quad4 id="4">49,109,111,50</quad4>
			<quad4 id="5">109,110,112,111</quad4>
			<quad4 id="6">110,32,31,112</quad4>
			<quad4 id="7">50,111,64,8</quad4>
			<quad4 id="8">111,112,63,64</quad4>
			<quad4 id="9">112,31,5,63</quad4>
		</Surface>
	</Mesh>
	<MeshDomains>
		<SolidDomain name="Part1" mat="Material1"/>
	</MeshDomains>
	<Boundary>
		<bc name="PrescribedDisplacement1" node_set="@surface:PrescribedDisplacement1" type="prescribed displacement">
			<dof>x</dof>
			<value lc="1">0.025</value>
			<relative>0</relative>
		</bc>
		<bc name="ZeroDisplacement2" node_set="@surface:ZeroDisplacement2" type="zero displacement">
			<x_dof>1</x_dof>
			<y_dof>1</y_dof>
			<z_dof>1</z_dof>
		</bc>
	</Boundary>
	<LoadData>
		<load_controller id="1" name="LC1" type="loadcurve">
			<interpolate>LINEAR</interpolate>
			<extend>CONSTANT</extend>
			<points>
				<pt>0,0</pt>
				<pt>1,1</pt>
			</points>
		</load_controller>
	</LoadData>
	<Output>
		<plotfile type="febio">
			<var type="displacement"/>
			<var type="stress"/>
			<var type="relative volume"/>
			<var type="deformation gradient"/>
		</plotfile>
		<logfile>
			<element_data data="Fxx;Fxy;Fxz;Fyx;Fyy;Fyz;Fzx;Fzy;Fzz" file="F">55</element_data>
			<element_data data="sx;sy;sz;sxy;syz;sxz" file="sigma">55</element_data>
		</logfile>
	</Output>
</febio_spec>
