<?xml version="1.0" encoding="ISO-8859-1"?>
<febio_spec version="4.0">
	<Module type="solid">
		<units>SI</units>
	</Module>
	<Control>
		<analysis>STATIC</analysis>
		<time_steps>10</time_steps>
		<step_size>0.1</step_size>
		<plot_zero_state>0</plot_zero_state>
		<plot_range>0,-1</plot_range>
		<plot_level>PLOT_MAJOR_ITRS</plot_level>
		<output_level>OUTPUT_MAJOR_ITRS</output_level>
		<plot_stride>1</plot_stride>
		<adaptor_re_solve>1</adaptor_re_solve>
		<time_stepper type="default">
			<max_retries>5</max_retries>
			<opt_iter>11</opt_iter>
			<dtmin>0</dtmin>
			<dtmax>0.1</dtmax>
			<aggressiveness>0</aggressiveness>
			<cutback>0.5</cutback>
			<dtforce>0</dtforce>
		</time_stepper>
		<solver type="solid">
			<symmetric_stiffness>symmetric</symmetric_stiffness>
			<equation_scheme>staggered</equation_scheme>
			<equation_order>default</equation_order>
			<optimize_bw>0</optimize_bw>
			<lstol>0.9</lstol>
			<lsmin>0.01</lsmin>
			<lsiter>5</lsiter>
			<max_refs>15</max_refs>
			<check_zero_diagonal>0</check_zero_diagonal>
			<zero_diagonal_tol>0</zero_diagonal_tol>
			<force_partition>0</force_partition>
			<reform_each_time_step>1</reform_each_time_step>
			<reform_augment>0</reform_augment>
			<diverge_reform>1</diverge_reform>
			<min_residual>1e-20</min_residual>
			<max_residual>0</max_residual>
			<dtol>0.001</dtol>
			<etol>0.01</etol>
			<rtol>0</rtol>
			<rhoi>-2</rhoi>
			<alpha>1</alpha>
			<beta>0.25</beta>
			<gamma>0.5</gamma>
			<logSolve>0</logSolve>
			<arc_length>0</arc_length>
			<arc_length_scale>0</arc_length_scale>
			<qn_method type="BFGS">
				<max_ups>10</max_ups>
				<max_buffer_size>0</max_buffer_size>
				<cycle_buffer>1</cycle_buffer>
				<cmax>100000</cmax>
			</qn_method>
		</solver>
	</Control>
	<Globals>
		<Constants>
			<T>0</T>
			<P>0</P>
			<R>8.31446</R>
			<Fc>96485.3</Fc>
		</Constants>
	</Globals>
	<Material>
		<material id="1" name="Material1" type="solid mixture">
			<solid type="neo-Hookean">
				<E>1000.0</E>
				<v>0.45</v>
			</solid>
			<solid type="fiber-exp-pow">
				<alpha>20</alpha>
				<beta>3</beta>
				<ksi>5</ksi>
				<lam0>1</lam0>
				<fiber type="vector">
				    <vector>1,1,0</vector>
				</fiber>
			</solid>
		</material>
    </Material>
	<Mesh>
		<Nodes name="Object1">
			<node id="1">-0.01,-0.05,0</node>
			<node id="2">0.01,-0.05,0</node>
			<node id="3">0.01,0.05,0</node>
			<node id="4">-0.01,0.05,0</node>
			<node id="5">-0.01,-0.05,0.02</node>
			<node id="6">0.01,-0.05,0.02</node>
			<node id="7">0.01,0.05,0.02</node>
			<node id="8">-0.01,0.05,0.02</node>
			<node id="9">-0.00333333333,-0.05,0</node>
			<node id="10">0.00333333333,-0.05,0</node>
			<node id="11">0.01,-0.05,0.00666666667</node>
			<node id="12">0.01,-0.05,0.0133333333</node>
			<node id="13">0.00333333333,-0.05,0.02</node>
			<node id="14">-0.00333333333,-0.05,0.02</node>
			<node id="15">-0.01,-0.05,0.0133333333</node>
			<node id="16">-0.01,-0.05,0.00666666667</node>
			<node id="17">0.01,-0.04,0</node>
			<node id="18">0.01,-0.03,0</node>
			<node id="19">0.01,-0.02,0</node>
			<node id="20">0.01,-0.01,0</node>
<!-- ... 156 like lines cut -->
		</Nodes>
		<Elements type="hex8" name="Part1">
			<elem id="1">1,9,121,51,16,61,141,95</elem>
			<elem id="2">9,10,122,121,61,62,142,141</elem>
			<elem id="3">10,2,17,122,62,11,65,142</elem>
			<elem id="4">51,121,119,50,95,141,143,94</elem>
			<elem id="5">121,122,120,119,141,142,144,143</elem>
			<elem id="6">122,17,18,120,142,65,66,144</elem>
			<elem id="7">50,119,117,49,94,143,145,93</elem>
			<elem id="8">119,120,118,117,143,144,146,145</elem>
			<elem id="9">120,18,19,118,144,66,67,146</elem>
			<elem id="10">49,117,115,48,93,145,147,92</elem>
			<elem id="11">117,118,116,115,145,146,148,147</elem>
			<elem id="12">118,19,20,116,146,67,68,148</elem>
			<elem id="13">48,115,113,47,92,147,149,91</elem>
			<elem id="14">115,116,114,113,147,148,150,149</elem>
			<elem id="15">116,20,21,114,148,68,69,150</elem>
			<elem id="16">47,113,111,46,91,149,151,90</elem>
			<elem id="17">113,114,112,111,149,150,152,151</elem>
			<elem id="18">114,21,22,112,150,69,70,152</elem>
			<elem id="19">46,111,109,45,90,151,153,89</elem>
			<elem id="20">111,112,110,109,151,152,154,153</elem>
<!-- ... 70 like lines cut -->
		</Elements>
		<Surface name="ZeroDisplacement1">
			<quad4 id="1">1,9,61,16</quad4>
			<quad4 id="2">9,10,62,61</quad4>
			<quad4 id="3">10,2,11,62</quad4>
			<quad4 id="4">16,61,63,15</quad4>
			<quad4 id="5">61,62,64,63</quad4>
			<quad4 id="6">62,11,12,64</quad4>
			<quad4 id="7">15,63,14,5</quad4>
			<quad4 id="8">63,64,13,14</quad4>
			<quad4 id="9">64,12,6,13</quad4>
		</Surface>
		<Surface name="PrescribedDisplacement2">
			<quad4 id="1">3,37,83,26</quad4>
			<quad4 id="2">37,38,84,83</quad4>
			<quad4 id="3">38,4,39,84</quad4>
			<quad4 id="4">26,83,85,27</quad4>
			<quad4 id="5">83,84,86,85</quad4>
			<quad4 id="6">84,39,40,86</quad4>
			<quad4 id="7">27,85,42,7</quad4>
			<quad4 id="8">85,86,41,42</quad4>
			<quad4 id="9">86,40,8,41</quad4>
		</Surface>
	</Mesh>
	<MeshDomains>
		<SolidDomain name="Part1" mat="Material1"/>
	</MeshDomains>
	<Boundary>
		<bc name="ZeroDisplacement1" node_set="@surface:ZeroDisplacement1" type="zero displacement">
			<x_dof>1</x_dof>
			<y_dof>1</y_dof>
			<z_dof>1</z_dof>
		</bc>
		<bc name="PrescribedDisplacement2" node_set="@surface:PrescribedDisplacement2" type="prescribed displacement">
			<dof>y</dof>
			<value lc="1">0.025</value>
			<relative>0</relative>
		</bc>
	</Boundary>
	<LoadData>
		<load_controller id="1" name="LC1" type="loadcurve">
			<interpolate>LINEAR</interpolate>
			<extend>CONSTANT</extend>
			<points>
				<pt>0,0</pt>
				<pt>1,1</pt>
			</points>
		</load_controller>
	</LoadData>
	<Output>
		<plotfile type="febio">
			<var type="displacement"/>
			<var type="stress"/>
			<var type="relative volume"/>
		</plotfile>
		<logfile>
			<element_data data="Fxx;Fxy;Fxz;Fyx;Fyy;Fyz;Fzx;Fzy;Fzz" file="F">59</element_data>
			<element_data data="sx;sy;sz;sxy;syz;sxz" file="sigma">59</element_data>
		</logfile>
	</Output>
</febio_spec>
