<?xml version="1.0" encoding="ISO-8859-1"?>
<febio_spec version="4.0">
	<Module type="solid">
		<units>SI</units>
	</Module>
	<Control>
		<analysis>STATIC</analysis>
		<time_steps>10</time_steps>
		<step_size>0.1</step_size>
		<plot_zero_state>0</plot_zero_state>
		<plot_range>0,-1</plot_range>
		<plot_level>PLOT_MAJOR_ITRS</plot_level>
		<output_level>OUTPUT_MAJOR_ITRS</output_level>
		<plot_stride>1</plot_stride>
		<adaptor_re_solve>1</adaptor_re_solve>
		<time_stepper type="default">
			<max_retries>5</max_retries>
			<opt_iter>11</opt_iter>
			<dtmin>0</dtmin>
			<dtmax>0.1</dtmax>
			<aggressiveness>0</aggressiveness>
			<cutback>0.5</cutback>
			<dtforce>0</dtforce>
		</time_stepper>
		<solver type="solid">
			<symmetric_stiffness>symmetric</symmetric_stiffness>
			<equation_scheme>staggered</equation_scheme>
			<equation_order>default</equation_order>
			<optimize_bw>0</optimize_bw>
			<lstol>0.9</lstol>
			<lsmin>0.01</lsmin>
			<lsiter>5</lsiter>
			<max_refs>15</max_refs>
			<check_zero_diagonal>0</check_zero_diagonal>
			<zero_diagonal_tol>0</zero_diagonal_tol>
			<force_partition>0</force_partition>
			<reform_each_time_step>1</reform_each_time_step>
			<reform_augment>0</reform_augment>
			<diverge_reform>1</diverge_reform>
			<min_residual>1e-20</min_residual>
			<max_residual>0</max_residual>
			<dtol>0.001</dtol>
			<etol>0.01</etol>
			<rtol>0</rtol>
			<rhoi>-2</rhoi>
			<alpha>1</alpha>
			<beta>0.25</beta>
			<gamma>0.5</gamma>
			<logSolve>0</logSolve>
			<arc_length>0</arc_length>
			<arc_length_scale>0</arc_length_scale>
			<qn_method type="BFGS">
				<max_ups>10</max_ups>
				<max_buffer_size>0</max_buffer_size>
				<cycle_buffer>1</cycle_buffer>
				<cmax>100000</cmax>
			</qn_method>
		</solver>
	</Control>
	<Globals>
		<Constants>
			<T>0</T>
			<P>0</P>
			<R>8.31446</R>
			<Fc>96485.3</Fc>
		</Constants>
	</Globals>
	<Material>
		<material id="1" name="Material1" type="solid mixture">
			<solid type="neo-Hookean">
				<E>1000.0</E>
				<v>0.45</v>
			</solid>
			<solid type="fiber-exp-pow">
				<alpha>20</alpha>
				<beta>3</beta>
				<ksi>5</ksi>
				<lam0>1</lam0>
				<fiber type="vector">
				    <vector>1,1,0</vector>
				</fiber>
			</solid>
		</material>
    </Material>
	<Mesh>
		<Nodes name="Object1">
			<node id="1">-0.05,-0.01,0</node>
			<node id="2">0.05,-0.01,0</node>
			<node id="3">0.05,0.01,0</node>
			<node id="4">-0.05,0.01,0</node>
			<node id="5">-0.05,-0.01,0.1</node>
			<node id="6">0.05,-0.01,0.1</node>
			<node id="7">0.05,0.01,0.1</node>
			<node id="8">-0.05,0.01,0.1</node>
			<node id="9">-0.045,-0.01,0</node>
			<node id="10">-0.04,-0.01,0</node>
			<node id="11">-0.035,-0.01,0</node>
			<node id="12">-0.03,-0.01,0</node>
			<node id="13">-0.025,-0.01,0</node>
			<node id="14">-0.02,-0.01,0</node>
			<node id="15">-0.015,-0.01,0</node>
			<node id="16">-0.01,-0.01,0</node>
			<node id="17">-0.005,-0.01,0</node>
			<node id="18">-3.46944695e-18,-0.01,0</node>
			<node id="19">0.005,-0.01,0</node>
			<node id="20">0.01,-0.01,0</node>
<!-- ... 2626 like lines cut -->
		</Nodes>
		<Elements type="hex8" name="Part1">
			<elem id="1">1,9,1108,172,84,177,1203,978</elem>
			<elem id="2">9,10,1109,1108,177,178,1204,1203</elem>
			<elem id="3">10,11,1110,1109,178,179,1205,1204</elem>
			<elem id="4">11,12,1111,1110,179,180,1206,1205</elem>
			<elem id="5">12,13,1112,1111,180,181,1207,1206</elem>
			<elem id="6">13,14,1113,1112,181,182,1208,1207</elem>
			<elem id="7">14,15,1114,1113,182,183,1209,1208</elem>
			<elem id="8">15,16,1115,1114,183,184,1210,1209</elem>
			<elem id="9">16,17,1116,1115,184,185,1211,1210</elem>
			<elem id="10">17,18,1117,1116,185,186,1212,1211</elem>
			<elem id="11">18,19,1118,1117,186,187,1213,1212</elem>
			<elem id="12">19,20,1119,1118,187,188,1214,1213</elem>
			<elem id="13">20,21,1120,1119,188,189,1215,1214</elem>
			<elem id="14">21,22,1121,1120,189,190,1216,1215</elem>
			<elem id="15">22,23,1122,1121,190,191,1217,1216</elem>
			<elem id="16">23,24,1123,1122,191,192,1218,1217</elem>
			<elem id="17">24,25,1124,1123,192,193,1219,1218</elem>
			<elem id="18">25,26,1125,1124,193,194,1220,1219</elem>
			<elem id="19">26,27,1126,1125,194,195,1221,1220</elem>
			<elem id="20">27,2,85,1126,195,28,538,1221</elem>
<!-- ... 1980 like lines cut -->
		</Elements>
		<Surface name="PrescribedDisplacement1">
			<quad4 id="1">4,169,975,131</quad4>
			<quad4 id="2">169,170,976,975</quad4>
			<quad4 id="3">170,171,977,976</quad4>
			<quad4 id="4">171,172,978,977</quad4>
			<quad4 id="5">172,1,84,978</quad4>
			<quad4 id="6">131,975,979,132</quad4>
			<quad4 id="7">975,976,980,979</quad4>
			<quad4 id="8">976,977,981,980</quad4>
			<quad4 id="9">977,978,982,981</quad4>
			<quad4 id="10">978,84,83,982</quad4>
			<quad4 id="11">132,979,983,133</quad4>
			<quad4 id="12">979,980,984,983</quad4>
			<quad4 id="13">980,981,985,984</quad4>
			<quad4 id="14">981,982,986,985</quad4>
			<quad4 id="15">982,83,82,986</quad4>
			<quad4 id="16">133,983,987,134</quad4>
			<quad4 id="17">983,984,988,987</quad4>
			<quad4 id="18">984,985,989,988</quad4>
			<quad4 id="19">985,986,990,989</quad4>
			<quad4 id="20">986,82,81,990</quad4>
<!-- ... 80 like lines cut -->
		</Surface>
		<Surface name="PrescribedDisplacement2">
			<quad4 id="1">2,85,538,28</quad4>
			<quad4 id="2">85,86,539,538</quad4>
			<quad4 id="3">86,87,540,539</quad4>
			<quad4 id="4">87,88,541,540</quad4>
			<quad4 id="5">88,3,89,541</quad4>
			<quad4 id="6">28,538,542,29</quad4>
			<quad4 id="7">538,539,543,542</quad4>
			<quad4 id="8">539,540,544,543</quad4>
			<quad4 id="9">540,541,545,544</quad4>
			<quad4 id="10">541,89,90,545</quad4>
			<quad4 id="11">29,542,546,30</quad4>
			<quad4 id="12">542,543,547,546</quad4>
			<quad4 id="13">543,544,548,547</quad4>
			<quad4 id="14">544,545,549,548</quad4>
			<quad4 id="15">545,90,91,549</quad4>
			<quad4 id="16">30,546,550,31</quad4>
			<quad4 id="17">546,547,551,550</quad4>
			<quad4 id="18">547,548,552,551</quad4>
			<quad4 id="19">548,549,553,552</quad4>
			<quad4 id="20">549,91,92,553</quad4>
<!-- ... 80 like lines cut -->
		</Surface>
		<Surface name="ZeroDisplacement3">
			<quad4 id="1">2,85,538,28</quad4>
			<quad4 id="2">85,86,539,538</quad4>
			<quad4 id="3">86,87,540,539</quad4>
			<quad4 id="4">87,88,541,540</quad4>
			<quad4 id="5">88,3,89,541</quad4>
			<quad4 id="6">28,538,542,29</quad4>
			<quad4 id="7">538,539,543,542</quad4>
			<quad4 id="8">539,540,544,543</quad4>
			<quad4 id="9">540,541,545,544</quad4>
			<quad4 id="10">541,89,90,545</quad4>
			<quad4 id="11">29,542,546,30</quad4>
			<quad4 id="12">542,543,547,546</quad4>
			<quad4 id="13">543,544,548,547</quad4>
			<quad4 id="14">544,545,549,548</quad4>
			<quad4 id="15">545,90,91,549</quad4>
			<quad4 id="16">30,546,550,31</quad4>
			<quad4 id="17">546,547,551,550</quad4>
			<quad4 id="18">547,548,552,551</quad4>
			<quad4 id="19">548,549,553,552</quad4>
			<quad4 id="20">549,91,92,553</quad4>
<!-- ... 180 like lines cut -->
		</Surface>
	</Mesh>
	<MeshDomains>
		<SolidDomain name="Part1" mat="Material1"/>
	</MeshDomains>
	<Boundary>
		<bc name="PrescribedDisplacement1" node_set="@surface:PrescribedDisplacement1" type="prescribed displacement">
			<dof>z</dof>
			<value lc="1">0.025</value>
			<relative>0</relative>
		</bc>
		<bc name="PrescribedDisplacement2" node_set="@surface:PrescribedDisplacement2" type="prescribed displacement">
			<dof>z</dof>
			<value lc="2">-0.025</value>
			<relative>0</relative>
		</bc>
		<bc name="ZeroDisplacement3" node_set="@surface:ZeroDisplacement3" type="zero displacement">
			<x_dof>1</x_dof>
			<y_dof>1</y_dof>
			<z_dof>0</z_dof>
		</bc>
	</Boundary>
	<LoadData>
		<load_controller id="1" name="LC2" type="loadcurve">
			<interpolate>LINEAR</interpolate>
			<extend>CONSTANT</extend>
			<points>
				<pt>0,0</pt>
				<pt>1,1</pt>
			</points>
		</load_controller>
		<load_controller id="2" name="LC3" type="loadcurve">
			<interpolate>LINEAR</interpolate>
			<extend>CONSTANT</extend>
			<points>
				<pt>0,0</pt>
				<pt>1,1</pt>
			</points>
		</load_controller>
	</LoadData>
	<Output>
		<plotfile type="febio">
			<var type="displacement"/>
			<var type="stress"/>
			<var type="relative volume"/>
		</plotfile>
		<logfile>
			<element_data data="Fxx;Fxy;Fxz;Fyx;Fyy;Fyz;Fzx;Fzy;Fzz" file="F">1943,1660,57,341</element_data>
			<element_data data="sx;sy;sz;sxy;syz;sxz" file="sigma">1943,1660,57,341</element_data>
		</logfile>
	</Output>
</febio_spec>
