<?xml version="1.0" encoding="ISO-8859-1"?>
<febio_spec version="4.0">
	<Module type="solid">
		<units>SI</units>
	</Module>
	<Control>
		<analysis>STATIC</analysis>
		<time_steps>10</time_steps>
		<step_size>0.1</step_size>
		<plot_zero_state>0</plot_zero_state>
		<plot_range>0,-1</plot_range>
		<plot_level>PLOT_MAJOR_ITRS</plot_level>
		<output_level>OUTPUT_MAJOR_ITRS</output_level>
		<plot_stride>1</plot_stride>
		<adaptor_re_solve>1</adaptor_re_solve>
		<time_stepper type="default">
			<max_retries>5</max_retries>
			<opt_iter>11</opt_iter>
			<dtmin>0</dtmin>
			<dtmax>0.1</dtmax>
			<aggressiveness>0</aggressiveness>
			<cutback>0.5</cutback>
			<dtforce>0</dtforce>
		</time_stepper>
		<solver type="solid">
			<symmetric_stiffness>symmetric</symmetric_stiffness>
			<equation_scheme>staggered</equation_scheme>
			<equation_order>default</equation_order>
			<optimize_bw>0</optimize_bw>
			<lstol>0.9</lstol>
			<lsmin>0.01</lsmin>
			<lsiter>5</lsiter>
			<max_refs>15</max_refs>
			<check_zero_diagonal>0</check_zero_diagonal>
			<zero_diagonal_tol>0</zero_diagonal_tol>
			<force_partition>0</force_partition>
			<reform_each_time_step>1</reform_each_time_step>
			<reform_augment>0</reform_augment>
			<diverge_reform>1</diverge_reform>
			<min_residual>1e-20</min_residual>
			<max_residual>0</max_residual>
			<dtol>0.001</dtol>
			<etol>0.01</etol>
			<rtol>0</rtol>
			<rhoi>-2</rhoi>
			<alpha>1</alpha>
			<beta>0.25</beta>
			<gamma>0.5</gamma>
			<logSolve>0</logSolve>
			<arc_length>0</arc_length>
			<arc_length_scale>0</arc_length_scale>
			<qn_method type="BFGS">
				<max_ups>10</max_ups>
				<max_buffer_size>0</max_buffer_size>
				<cycle_buffer>1</cycle_buffer>
				<cmax>100000</cmax>
			</qn_method>
		</solver>
	</Control>
	<Globals>
		<Constants>
			<T>0</T>
			<P>0</P>
			<R>8.31446</R>
			<Fc>96485.3</Fc>
		</Constants>
	</Globals>
	<Material>
		<material id="1" name="Material1" type="solid mixture">
			<solid type="neo-Hookean">
				<E>1000.0</E>
				<v>0.45</v>
			</solid>
			<solid type="fiber-exp-pow">
				<alpha>20</alpha>
				<beta>3</beta>
				<ksi>5</ksi>
				<lam0>1</lam0>
				<fiber type="vector">
				    <vector>1,1,0</vector>
				</fiber>
			</solid>
		</material>
    </Material>
	<Mesh>
		<Nodes name="Object1">
			<node id="1">-0.05,-0.05,0</node>
			<node id="2">0.05,-0.05,0</node>
			<node id="3">0.05,0.05,0</node>
			<node id="4">-0.05,0.05,0</node>
			<node id="5">-0.05,-0.05,0.02</node>
			<node id="6">0.05,-0.05,0.02</node>
			<node id="7">0.05,0.05,0.02</node>
			<node id="8">-0.05,0.05,0.02</node>
			<node id="9">-0.045,-0.05,0</node>
			<node id="10">-0.04,-0.05,0</node>
			<node id="11">-0.035,-0.05,0</node>
			<node id="12">-0.03,-0.05,0</node>
			<node id="13">-0.025,-0.05,0</node>
			<node id="14">-0.02,-0.05,0</node>
			<node id="15">-0.015,-0.05,0</node>
			<node id="16">-0.01,-0.05,0</node>
			<node id="17">-0.005,-0.05,0</node>
			<node id="18">-3.46944695e-18,-0.05,0</node>
			<node id="19">0.005,-0.05,0</node>
			<node id="20">0.01,-0.05,0</node>
<!-- ... 2626 like lines cut -->
		</Nodes>
		<Elements type="hex8" name="Part1">
			<elem id="1">1,9,823,157,54,177,1203,423</elem>
			<elem id="2">9,10,824,823,177,178,1204,1203</elem>
			<elem id="3">10,11,825,824,178,179,1205,1204</elem>
			<elem id="4">11,12,826,825,179,180,1206,1205</elem>
			<elem id="5">12,13,827,826,180,181,1207,1206</elem>
			<elem id="6">13,14,828,827,181,182,1208,1207</elem>
			<elem id="7">14,15,829,828,182,183,1209,1208</elem>
			<elem id="8">15,16,830,829,183,184,1210,1209</elem>
			<elem id="9">16,17,831,830,184,185,1211,1210</elem>
			<elem id="10">17,18,832,831,185,186,1212,1211</elem>
			<elem id="11">18,19,833,832,186,187,1213,1212</elem>
			<elem id="12">19,20,834,833,187,188,1214,1213</elem>
			<elem id="13">20,21,835,834,188,189,1215,1214</elem>
			<elem id="14">21,22,836,835,189,190,1216,1215</elem>
			<elem id="15">22,23,837,836,190,191,1217,1216</elem>
			<elem id="16">23,24,838,837,191,192,1218,1217</elem>
			<elem id="17">24,25,839,838,192,193,1219,1218</elem>
			<elem id="18">25,26,840,839,193,194,1220,1219</elem>
			<elem id="19">26,27,841,840,194,195,1221,1220</elem>
			<elem id="20">27,2,55,841,195,28,253,1221</elem>
<!-- ... 1980 like lines cut -->
		</Elements>
		<Surface name="PrescribedDisplacement1">
			<quad4 id="1">1,9,177,54</quad4>
			<quad4 id="2">9,10,178,177</quad4>
			<quad4 id="3">10,11,179,178</quad4>
			<quad4 id="4">11,12,180,179</quad4>
			<quad4 id="5">12,13,181,180</quad4>
			<quad4 id="6">13,14,182,181</quad4>
			<quad4 id="7">14,15,183,182</quad4>
			<quad4 id="8">15,16,184,183</quad4>
			<quad4 id="9">16,17,185,184</quad4>
			<quad4 id="10">17,18,186,185</quad4>
			<quad4 id="11">18,19,187,186</quad4>
			<quad4 id="12">19,20,188,187</quad4>
			<quad4 id="13">20,21,189,188</quad4>
			<quad4 id="14">21,22,190,189</quad4>
			<quad4 id="15">22,23,191,190</quad4>
			<quad4 id="16">23,24,192,191</quad4>
			<quad4 id="17">24,25,193,192</quad4>
			<quad4 id="18">25,26,194,193</quad4>
			<quad4 id="19">26,27,195,194</quad4>
			<quad4 id="20">27,2,28,195</quad4>
<!-- ... 80 like lines cut -->
		</Surface>
		<Surface name="PrescribedDisplacement2">
			<quad4 id="1">3,97,329,74</quad4>
			<quad4 id="2">97,98,330,329</quad4>
			<quad4 id="3">98,99,331,330</quad4>
			<quad4 id="4">99,100,332,331</quad4>
			<quad4 id="5">100,101,333,332</quad4>
			<quad4 id="6">101,102,334,333</quad4>
			<quad4 id="7">102,103,335,334</quad4>
			<quad4 id="8">103,104,336,335</quad4>
			<quad4 id="9">104,105,337,336</quad4>
			<quad4 id="10">105,106,338,337</quad4>
			<quad4 id="11">106,107,339,338</quad4>
			<quad4 id="12">107,108,340,339</quad4>
			<quad4 id="13">108,109,341,340</quad4>
			<quad4 id="14">109,110,342,341</quad4>
			<quad4 id="15">110,111,343,342</quad4>
			<quad4 id="16">111,112,344,343</quad4>
			<quad4 id="17">112,113,345,344</quad4>
			<quad4 id="18">113,114,346,345</quad4>
			<quad4 id="19">114,115,347,346</quad4>
			<quad4 id="20">115,4,116,347</quad4>
<!-- ... 80 like lines cut -->
		</Surface>
		<Surface name="ZeroDisplacement3">
			<quad4 id="1">1,9,177,54</quad4>
			<quad4 id="2">9,10,178,177</quad4>
			<quad4 id="3">10,11,179,178</quad4>
			<quad4 id="4">11,12,180,179</quad4>
			<quad4 id="5">12,13,181,180</quad4>
			<quad4 id="6">13,14,182,181</quad4>
			<quad4 id="7">14,15,183,182</quad4>
			<quad4 id="8">15,16,184,183</quad4>
			<quad4 id="9">16,17,185,184</quad4>
			<quad4 id="10">17,18,186,185</quad4>
			<quad4 id="11">18,19,187,186</quad4>
			<quad4 id="12">19,20,188,187</quad4>
			<quad4 id="13">20,21,189,188</quad4>
			<quad4 id="14">21,22,190,189</quad4>
			<quad4 id="15">22,23,191,190</quad4>
			<quad4 id="16">23,24,192,191</quad4>
			<quad4 id="17">24,25,193,192</quad4>
			<quad4 id="18">25,26,194,193</quad4>
			<quad4 id="19">26,27,195,194</quad4>
			<quad4 id="20">27,2,28,195</quad4>
<!-- ... 80 like lines cut -->
		</Surface>
		<Surface name="ZeroDisplacement4">
			<quad4 id="1">3,97,329,74</quad4>
			<quad4 id="2">97,98,330,329</quad4>
			<quad4 id="3">98,99,331,330</quad4>
			<quad4 id="4">99,100,332,331</quad4>
			<quad4 id="5">100,101,333,332</quad4>
			<quad4 id="6">101,102,334,333</quad4>
			<quad4 id="7">102,103,335,334</quad4>
			<quad4 id="8">103,104,336,335</quad4>
			<quad4 id="9">104,105,337,336</quad4>
			<quad4 id="10">105,106,338,337</quad4>
			<quad4 id="11">106,107,339,338</quad4>
			<quad4 id="12">107,108,340,339</quad4>
			<quad4 id="13">108,109,341,340</quad4>
			<quad4 id="14">109,110,342,341</quad4>
			<quad4 id="15">110,111,343,342</quad4>
			<quad4 id="16">111,112,344,343</quad4>
			<quad4 id="17">112,113,345,344</quad4>
			<quad4 id="18">113,114,346,345</quad4>
			<quad4 id="19">114,115,347,346</quad4>
			<quad4 id="20">115,4,116,347</quad4>
<!-- ... 80 like lines cut -->
		</Surface>
	</Mesh>
	<MeshDomains>
		<SolidDomain name="Part1" mat="Material1"/>
	</MeshDomains>
	<Boundary>
		<bc name="PrescribedDisplacement1" node_set="@surface:PrescribedDisplacement1" type="prescribed displacement">
			<dof>x</dof>
			<value lc="1">0.025</value>
			<relative>0</relative>
		</bc>
		<bc name="PrescribedDisplacement2" node_set="@surface:PrescribedDisplacement2" type="prescribed displacement">
			<dof>x</dof>
			<value lc="2">-0.025</value>
			<relative>0</relative>
		</bc>
		<bc name="ZeroDisplacement3" node_set="@surface:ZeroDisplacement3" type="zero displacement">
			<x_dof>0</x_dof>
			<y_dof>1</y_dof>
			<z_dof>1</z_dof>
		</bc>
		<bc name="ZeroDisplacement4" node_set="@surface:ZeroDisplacement4" type="zero displacement">
			<x_dof>0</x_dof>
			<y_dof>1</y_dof>
			<z_dof>1</z_dof>
		</bc>
	</Boundary>
	<LoadData>
		<load_controller id="1" name="LC1" type="loadcurve">
			<interpolate>LINEAR</interpolate>
			<extend>CONSTANT</extend>
			<points>
				<pt>0,0</pt>
				<pt>1,1</pt>
			</points>
		</load_controller>
		<load_controller id="2" name="LC2" type="loadcurve">
			<interpolate>LINEAR</interpolate>
			<extend>CONSTANT</extend>
			<points>
				<pt>0,0</pt>
				<pt>1,1</pt>
			</points>
		</load_controller>
	</LoadData>
	<Output>
		<plotfile type="febio">
			<var type="displacement"/>
			<var type="stress"/>
			<var type="relative volume"/>
		</plotfile>
		<logfile>
			<element_data data="Fxx;Fxy;Fxz;Fyx;Fyy;Fyz;Fzx;Fzy;Fzz" file="F">860,1197,1121, 803</element_data>
			<element_data data="sx;sy;sz;sxy;syz;sxz" file="sigma">860,1197,1121, 803</element_data>
		</logfile>
	</Output>
</febio_spec>
