<?xml version="1.0" encoding="ISO-8859-1"?>
<febio_spec version="4.0">
	<Module type="solid">
		<units>SI</units>
	</Module>
	<Control>
		<analysis>STATIC</analysis>
		<time_steps>10</time_steps>
		<step_size>0.1</step_size>
		<plot_zero_state>0</plot_zero_state>
		<plot_range>0,-1</plot_range>
		<plot_level>PLOT_MAJOR_ITRS</plot_level>
		<output_level>OUTPUT_MAJOR_ITRS</output_level>
		<plot_stride>1</plot_stride>
		<adaptor_re_solve>1</adaptor_re_solve>
		<time_stepper type="default">
			<max_retries>5</max_retries>
			<opt_iter>11</opt_iter>
			<dtmin>0</dtmin>
			<dtmax>0.1</dtmax>
			<aggressiveness>0</aggressiveness>
			<cutback>0.5</cutback>
			<dtforce>0</dtforce>
		</time_stepper>
		<solver type="solid">
			<symmetric_stiffness>symmetric</symmetric_stiffness>
			<equation_scheme>staggered</equation_scheme>
			<equation_order>default</equation_order>
			<optimize_bw>0</optimize_bw>
			<lstol>0.9</lstol>
			<lsmin>0.01</lsmin>
			<lsiter>5</lsiter>
			<max_refs>15</max_refs>
			<check_zero_diagonal>0</check_zero_diagonal>
			<zero_diagonal_tol>0</zero_diagonal_tol>
			<force_partition>0</force_partition>
			<reform_each_time_step>1</reform_each_time_step>
			<reform_augment>0</reform_augment>
			<diverge_reform>1</diverge_reform>
			<min_residual>1e-20</min_residual>
			<max_residual>0</max_residual>
			<dtol>0.001</dtol>
			<etol>0.01</etol>
			<rtol>0</rtol>
			<rhoi>-2</rhoi>
			<alpha>1</alpha>
			<beta>0.25</beta>
			<gamma>0.5</gamma>
			<logSolve>0</logSolve>
			<arc_length>0</arc_length>
			<arc_length_scale>0</arc_length_scale>
			<qn_method type="BFGS">
				<max_ups>10</max_ups>
				<max_buffer_size>0</max_buffer_size>
				<cycle_buffer>1</cycle_buffer>
				<cmax>100000</cmax>
			</qn_method>
		</solver>
	</Control>
	<Globals>
		<Constants>
			<T>0</T>
			<P>0</P>
			<R>8.31446</R>
			<Fc>96485.3</Fc>
		</Constants>
	</Globals>
	<Material>
		<material id="1" name="Material1" type="solid mixture">
			<solid type="neo-Hookean">
				<E>1000.0</E>
				<v>0.45</v>
			</solid>
			<solid type="fiber-exp-pow">
				<alpha>20</alpha>
				<beta>3</beta>
				<ksi>5</ksi>
				<lam0>1</lam0>
				<fiber type="vector">
				    <vector>1,1,0</vector>
				</fiber>
			</solid>
		</material>
    </Material>
	<Mesh>
		<Nodes name="Object1">
			<node id="1">-0.05,-0.05,0</node>
			<node id="2">0.05,-0.05,0</node>
			<node id="3">0.05,0.05,0</node>
			<node id="4">-0.05,0.05,0</node>
			<node id="5">-0.05,-0.05,0.02</node>
			<node id="6">0.05,-0.05,0.02</node>
			<node id="7">0.05,0.05,0.02</node>
			<node id="8">-0.05,0.05,0.02</node>
			<node id="9">-0.0452380952,-0.05,0</node>
			<node id="10">-0.0404761905,-0.05,0</node>
			<node id="11">-0.0357142857,-0.05,0</node>
			<node id="12">-0.030952381,-0.05,0</node>
			<node id="13">-0.0261904762,-0.05,0</node>
			<node id="14">-0.0214285714,-0.05,0</node>
			<node id="15">-0.0166666667,-0.05,0</node>
			<node id="16">-0.0119047619,-0.05,0</node>
			<node id="17">-0.00714285714,-0.05,0</node>
			<node id="18">-0.00238095238,-0.05,0</node>
			<node id="19">0.00238095238,-0.05,0</node>
			<node id="20">0.00714285714,-0.05,0</node>
<!-- ... 2884 like lines cut -->
		</Nodes>
		<Elements type="hex8" name="Part1">
			<elem id="1">1,9,885,164,56,185,1305,444</elem>
			<elem id="2">9,10,886,885,185,186,1306,1305</elem>
			<elem id="3">10,11,887,886,186,187,1307,1306</elem>
			<elem id="4">11,12,888,887,187,188,1308,1307</elem>
			<elem id="5">12,13,889,888,188,189,1309,1308</elem>
			<elem id="6">13,14,890,889,189,190,1310,1309</elem>
			<elem id="7">14,15,891,890,190,191,1311,1310</elem>
			<elem id="8">15,16,892,891,191,192,1312,1311</elem>
			<elem id="9">16,17,893,892,192,193,1313,1312</elem>
			<elem id="10">17,18,894,893,193,194,1314,1313</elem>
			<elem id="11">18,19,895,894,194,195,1315,1314</elem>
			<elem id="12">19,20,896,895,195,196,1316,1315</elem>
			<elem id="13">20,21,897,896,196,197,1317,1316</elem>
			<elem id="14">21,22,898,897,197,198,1318,1317</elem>
			<elem id="15">22,23,899,898,198,199,1319,1318</elem>
			<elem id="16">23,24,900,899,199,200,1320,1319</elem>
			<elem id="17">24,25,901,900,200,201,1321,1320</elem>
			<elem id="18">25,26,902,901,201,202,1322,1321</elem>
			<elem id="19">26,27,903,902,202,203,1323,1322</elem>
			<elem id="20">27,28,904,903,203,204,1324,1323</elem>
<!-- ... 2185 like lines cut -->
		</Elements>
		<Surface name="PrescribedDisplacement1">
			<quad4 id="1">2,57,265,29</quad4>
			<quad4 id="2">57,58,266,265</quad4>
			<quad4 id="3">58,59,267,266</quad4>
			<quad4 id="4">59,60,268,267</quad4>
			<quad4 id="5">60,61,269,268</quad4>
			<quad4 id="6">61,62,270,269</quad4>
			<quad4 id="7">62,63,271,270</quad4>
			<quad4 id="8">63,64,272,271</quad4>
			<quad4 id="9">64,65,273,272</quad4>
			<quad4 id="10">65,66,274,273</quad4>
			<quad4 id="11">66,67,275,274</quad4>
			<quad4 id="12">67,68,276,275</quad4>
			<quad4 id="13">68,69,277,276</quad4>
			<quad4 id="14">69,70,278,277</quad4>
			<quad4 id="15">70,71,279,278</quad4>
			<quad4 id="16">71,72,280,279</quad4>
			<quad4 id="17">72,73,281,280</quad4>
			<quad4 id="18">73,74,282,281</quad4>
			<quad4 id="19">74,75,283,282</quad4>
			<quad4 id="20">75,76,284,283</quad4>
<!-- ... 85 like lines cut -->
		</Surface>
		<Surface name="PrescribedDisplacement2">
			<quad4 id="1">4,145,425,121</quad4>
			<quad4 id="2">145,146,426,425</quad4>
			<quad4 id="3">146,147,427,426</quad4>
			<quad4 id="4">147,148,428,427</quad4>
			<quad4 id="5">148,149,429,428</quad4>
			<quad4 id="6">149,150,430,429</quad4>
			<quad4 id="7">150,151,431,430</quad4>
			<quad4 id="8">151,152,432,431</quad4>
			<quad4 id="9">152,153,433,432</quad4>
			<quad4 id="10">153,154,434,433</quad4>
			<quad4 id="11">154,155,435,434</quad4>
			<quad4 id="12">155,156,436,435</quad4>
			<quad4 id="13">156,157,437,436</quad4>
			<quad4 id="14">157,158,438,437</quad4>
			<quad4 id="15">158,159,439,438</quad4>
			<quad4 id="16">159,160,440,439</quad4>
			<quad4 id="17">160,161,441,440</quad4>
			<quad4 id="18">161,162,442,441</quad4>
			<quad4 id="19">162,163,443,442</quad4>
			<quad4 id="20">163,164,444,443</quad4>
<!-- ... 85 like lines cut -->
		</Surface>
		<Surface name="PrescribedDisplacement3">
			<quad4 id="1">3,101,345,77</quad4>
			<quad4 id="2">101,102,346,345</quad4>
			<quad4 id="3">102,103,347,346</quad4>
			<quad4 id="4">103,104,348,347</quad4>
			<quad4 id="5">104,105,349,348</quad4>
			<quad4 id="6">105,106,350,349</quad4>
			<quad4 id="7">106,107,351,350</quad4>
			<quad4 id="8">107,108,352,351</quad4>
			<quad4 id="9">108,109,353,352</quad4>
			<quad4 id="10">109,110,354,353</quad4>
			<quad4 id="11">110,111,355,354</quad4>
			<quad4 id="12">111,112,356,355</quad4>
			<quad4 id="13">112,113,357,356</quad4>
			<quad4 id="14">113,114,358,357</quad4>
			<quad4 id="15">114,115,359,358</quad4>
			<quad4 id="16">115,116,360,359</quad4>
			<quad4 id="17">116,117,361,360</quad4>
			<quad4 id="18">117,118,362,361</quad4>
			<quad4 id="19">118,119,363,362</quad4>
			<quad4 id="20">119,120,364,363</quad4>
<!-- ... 85 like lines cut -->
		</Surface>
		<Surface name="PrescribedDisplacement4">
			<quad4 id="1">1,9,185,56</quad4>
			<quad4 id="2">9,10,186,185</quad4>
			<quad4 id="3">10,11,187,186</quad4>
			<quad4 id="4">11,12,188,187</quad4>
			<quad4 id="5">12,13,189,188</quad4>
			<quad4 id="6">13,14,190,189</quad4>
			<quad4 id="7">14,15,191,190</quad4>
			<quad4 id="8">15,16,192,191</quad4>
			<quad4 id="9">16,17,193,192</quad4>
			<quad4 id="10">17,18,194,193</quad4>
			<quad4 id="11">18,19,195,194</quad4>
			<quad4 id="12">19,20,196,195</quad4>
			<quad4 id="13">20,21,197,196</quad4>
			<quad4 id="14">21,22,198,197</quad4>
			<quad4 id="15">22,23,199,198</quad4>
			<quad4 id="16">23,24,200,199</quad4>
			<quad4 id="17">24,25,201,200</quad4>
			<quad4 id="18">25,26,202,201</quad4>
			<quad4 id="19">26,27,203,202</quad4>
			<quad4 id="20">27,28,204,203</quad4>
<!-- ... 85 like lines cut -->
		</Surface>
	</Mesh>
	<MeshDomains>
		<SolidDomain name="Part1" mat="Material1"/>
	</MeshDomains>
	<Boundary>
		<bc name="PrescribedDisplacement1" node_set="@surface:PrescribedDisplacement1" type="prescribed displacement">
			<dof>x</dof>
			<value lc="1">0.013</value>
			<relative>0</relative>
		</bc>
		<bc name="PrescribedDisplacement2" node_set="@surface:PrescribedDisplacement2" type="prescribed displacement">
			<dof>x</dof>
			<value lc="2">-0.013</value>
			<relative>0</relative>
		</bc>
		<bc name="PrescribedDisplacement3" node_set="@surface:PrescribedDisplacement3" type="prescribed displacement">
			<dof>y</dof>
			<value lc="3">0.013</value>
			<relative>0</relative>
		</bc>
		<bc name="PrescribedDisplacement4" node_set="@surface:PrescribedDisplacement4" type="prescribed displacement">
			<dof>y</dof>
			<value lc="4">-0.013</value>
			<relative>0</relative>
		</bc>
	</Boundary>
	<LoadData>
		<load_controller id="1" name="LC1" type="loadcurve">
			<interpolate>LINEAR</interpolate>
			<extend>CONSTANT</extend>
			<points>
				<pt>0,0</pt>
				<pt>1,1</pt>
			</points>
		</load_controller>
		<load_controller id="2" name="LC2" type="loadcurve">
			<interpolate>LINEAR</interpolate>
			<extend>CONSTANT</extend>
			<points>
				<pt>0,0</pt>
				<pt>1,1</pt>
			</points>
		</load_controller>
		<load_controller id="3" name="LC3" type="loadcurve">
			<interpolate>LINEAR</interpolate>
			<extend>CONSTANT</extend>
			<points>
				<pt>0,0</pt>
				<pt>1,1</pt>
			</points>
		</load_controller>
		<load_controller id="4" name="LC4" type="loadcurve">
			<interpolate>LINEAR</interpolate>
			<extend>CONSTANT</extend>
			<points>
				<pt>0,0</pt>
				<pt>1,1</pt>
			</points>
		</load_controller>
	</LoadData>
	<Output>
		<plotfile type="febio">
			<var type="displacement"/>
			<var type="stress"/>
			<var type="relative volume"/>
		</plotfile>
		<logfile>
			<element_data data="Fxx;Fxy;Fxz;Fyx;Fyy;Fyz;Fzx;Fzy;Fzz" file="F">1954,1995,872,453</element_data>
			<element_data data="sx;sy;sz;sxy;syz;sxz" file="sigma">1954,1995,872,453</element_data>
		</logfile>
	</Output>
</febio_spec>
